v0.11.1/tutorials/data/14bus.raw
0,   100.00, 33, 0, 1, 60.00     / PSS(R)E 33 RAW created by rawd33  FRI, OCT 30 2020  14:04
 10/03/09 PSAT ARCHIVE         100.00 2009 W
 14-BUS 20-LINE SYSTEM
     1,'BUS 01',  69.0000,3,   1,   1,   1,1.06000,   0.0000,1.10000,0.90000,1.10000,0.90000
     2,'BUS 02',  69.0000,2,   1,   1,   1,1.04000,  -4.0739,1.10000,0.90000,1.10000,0.90000
     3,'BUS 03',  69.0000,2,   1,   1,   1,1.01000, -10.2390,1.10000,0.90000,1.10000,0.90000
     4,'BUS 04',  69.0000,1,   1,   1,   1,1.01285,  -8.3552,1.10000,0.90000,1.10000,0.90000
     5,'BUS 05',  69.0000,1,   1,   1,   1,1.01648,  -7.0781,1.10000,0.90000,1.10000,0.90000
     6,'BUS 06',  13.8000,2,   1,   1,   1,1.06000, -11.1673,1.10000,0.90000,1.10000,0.90000
     7,'BUS 07',  13.8000,1,   1,   1,   1,1.04377, -10.3813,1.10000,0.90000,1.10000,0.90000
     8,'BUS 08',  18.0000,2,   1,   1,   1,1.08000,  -9.4860,1.10000,0.90000,1.10000,0.90000
     9,'BUS 09',  13.8000,1,   1,   1,   1,1.02628, -12.0454,1.10000,0.90000,1.10000,0.90000
    10,'BUS 10',  13.8000,1,   1,   1,   1,1.02453, -12.1780,1.10000,0.90000,1.10000,0.90000
    11,'BUS 11',  13.8000,1,   1,   1,   1,1.03837, -11.7965,1.10000,0.90000,1.10000,0.90000
    12,'BUS 12',  13.8000,1,   1,   1,   1,1.04362, -12.0632,1.10000,0.90000,1.10000,0.90000
    13,'BUS 13',  13.8000,1,   1,   1,   1,1.03723, -12.1386,1.10000,0.90000,1.10000,0.90000
    14,'BUS 14',  13.8000,1,   1,   1,   1,1.01263, -13.1279,1.10000,0.90000,1.10000,0.90000
 0 /End of Bus data, Begin Load data
     2,'1 ',1,   1,   1,    21.700,    12.700,     0.000,     0.000,     0.000,     0.000,   1,1,0
     3,'1 ',1,   1,   1,    94.200,    19.000,     0.000,     0.000,     0.000,     0.000,   1,1,0
     4,'1 ',1,   1,   1,    47.800,     0.000,     0.000,     0.000,     0.000,     0.000,   1,1,0
     5,'1 ',1,   1,   1,     7.600,     1.600,     0.000,     0.000,     0.000,     0.000,   1,1,0
     6,'1 ',1,   1,   1,    11.200,     7.500,     0.000,     0.000,     0.000,     0.000,   1,1,0
     9,'1 ',1,   1,   1,    29.500,    16.600,     0.000,     0.000,     0.000,     0.000,   1,1,0
    10,'1 ',1,   1,   1,     9.000,     5.800,     0.000,     0.000,     0.000,     0.000,   1,1,0
    11,'1 ',1,   1,   1,     3.500,     1.800,     0.000,     0.000,     0.000,     0.000,   1,1,0
    12,'1 ',1,   1,   1,     6.100,     1.600,     0.000,     0.000,     0.000,     0.000,   1,1,0
    13,'1 ',1,   1,   1,    13.500,     5.800,     0.000,     0.000,     0.000,     0.000,   1,1,0
    14,'1 ',1,   1,   1,    14.900,     5.000,     0.000,     0.000,     0.000,     0.000,   1,1,0
 0 /End of Load data, Begin Fixed shunt data
 0 /End of Fixed shunt data, Begin Generator data
     1,'1 ',   193.330,     1.121,  1000.000, -1000.000,1.06000,     0,   615.000, 0.00000E+0, 2.30000E-1, 0.00000E+0, 0.00000E+0,1.00000,1,  100.0,  9999.000, -9999.000,   1,1.0000
     2,'1 ',    30.000,    27.016,    50.000,   -40.000,1.04000,     0,    60.000, 0.00000E+0, 1.30000E-1, 0.00000E+0, 0.00000E+0,1.00000,1,  100.0,  9999.000, -9999.000,   1,1.0000
     3,'1 ',    20.000,    21.719,    40.000,     0.000,1.01000,     0,    60.000, 0.00000E+0, 1.30000E-1, 0.00000E+0, 0.00000E+0,1.00000,1,  100.0,  9999.000, -9999.000,   1,1.0000
     6,'1 ',    15.000,    14.800,    24.000,    -6.000,1.06000,     0,    25.000, 0.00000E+0, 1.20000E-1, 0.00000E+0, 0.00000E+0,1.00000,1,  100.0,  9999.000, -9999.000,   1,1.0000
     8,'1 ',    10.000,    22.292,    24.000,    -6.000,1.08000,     0,    25.000, 0.00000E+0, 1.20000E-1, 0.00000E+0, 0.00000E+0,1.00000,1,  100.0,  9999.000, -9999.000,   1,1.0000
 0 /End of Generator data, Begin Branch data
     1,     2,'1 ', 1.93800E-2, 5.91700E-2,   0.05280,    0.00,    0.00,    0.00,  0.00000,  0.00000,  0.00000,  0.00000,1,1,   0.00,   1,1.0000
     1,     5,'1 ', 5.40300E-2, 2.23040E-1,   0.04920,    0.00,    0.00,    0.00,  0.00000,  0.00000,  0.00000,  0.00000,1,1,   0.00,   1,1.0000
     2,     3,'1 ', 4.69900E-2, 1.97970E-1,   0.04380,    0.00,    0.00,    0.00,  0.00000,  0.00000,  0.00000,  0.00000,1,2,   0.00,   1,1.0000
     2,     4,'1 ', 5.81100E-2, 1.76320E-1,   0.03740,    0.00,    0.00,    0.00,  0.00000,  0.00000,  0.00000,  0.00000,1,1,   0.00,   1,1.0000
     2,     5,'1 ', 5.69500E-2, 1.73880E-1,   0.03400,    0.00,    0.00,    0.00,  0.00000,  0.00000,  0.00000,  0.00000,1,1,   0.00,   1,1.0000
     3,     4,'1 ', 6.70100E-2, 1.71030E-1,   0.03460,    0.00,    0.00,    0.00,  0.00000,  0.00000,  0.00000,  0.00000,1,1,   0.00,   1,1.0000
     4,     5,'1 ', 1.33500E-2, 4.21100E-2,   0.01280,    0.00,    0.00,    0.00,  0.00000,  0.00000,  0.00000,  0.00000,1,2,   0.00,   1,1.0000
     6,    11,'1 ', 9.49800E-2, 1.98900E-1,   0.00000,    0.00,    0.00,    0.00,  0.00000,  0.00000,  0.00000,  0.00000,1,1,   0.00,   1,1.0000
     6,    12,'1 ', 1.22910E-1, 2.55810E-1,   0.00000,    0.00,    0.00,    0.00,  0.00000,  0.00000,  0.00000,  0.00000,1,1,   0.00,   1,1.0000
     6,    13,'1 ', 6.61500E-2, 1.30270E-1,   0.00000,    0.00,    0.00,    0.00,  0.00000,  0.00000,  0.00000,  0.00000,1,1,   0.00,   1,1.0000
     7,     9,'1 ',-0.00000E+0, 1.10010E-1,   0.00000,    0.00,    0.00,    0.00,  0.00000,  0.00000,  0.00000,  0.00000,1,1,   0.00,   1,1.0000
     9,    10,'1 ', 3.18100E-2, 8.45000E-2,   0.00000,    0.00,    0.00,    0.00,  0.00000,  0.00000,  0.00000,  0.00000,1,1,   0.00,   1,1.0000
     9,    14,'1 ', 1.27110E-1, 2.70380E-1,   0.00000,    0.00,    0.00,    0.00,  0.00000,  0.00000,  0.00000,  0.00000,1,1,   0.00,   1,1.0000
    10,    11,'1 ', 8.20500E-2, 1.92070E-1,   0.00000,    0.00,    0.00,    0.00,  0.00000,  0.00000,  0.00000,  0.00000,1,2,   0.00,   1,1.0000
    12,    13,'1 ', 2.20920E-1, 1.99880E-1,   0.00000,    0.00,    0.00,    0.00,  0.00000,  0.00000,  0.00000,  0.00000,1,1,   0.00,   1,1.0000
    13,    14,'1 ', 1.70930E-1, 3.48020E-1,   0.00000,    0.00,    0.00,    0.00,  0.00000,  0.00000,  0.00000,  0.00000,1,2,   0.00,   1,1.0000
 0 /End of Branch data, Begin Transformer data
     4,     7,     0,'1 ',1,1,1, 0.00000E+0, 0.00000E+0,2,'            ',1,   1,1.0000,   0,1.0000,   0,1.0000,   0,1.0000,'            '
 0.00000E+0, 2.09120E-1,   100.00
0.97800,   0.000,   0.000,     0.00,     0.00,     0.00, 0,      0, 1.10000, 0.90000, 1.10000, 0.90000, 999, 0, 0.00000, 0.00000,  0.000
1.00000,   0.000
     4,     9,     0,'1 ',1,1,1, 0.00000E+0, 0.00000E+0,2,'            ',1,   1,1.0000,   0,1.0000,   0,1.0000,   0,1.0000,'            '
 0.00000E+0, 5.56180E-1,   100.00
0.96900,   0.000,   0.000,     0.00,     0.00,     0.00, 0,      0, 1.10000, 0.90000, 1.10000, 0.90000, 999, 0, 0.00000, 0.00000,  0.000
1.00000,   0.000
     5,     6,     0,'1 ',1,1,1, 0.00000E+0, 0.00000E+0,2,'            ',1,   1,1.0000,   0,1.0000,   0,1.0000,   0,1.0000,'            '
 0.00000E+0, 2.52020E-1,   100.00
0.93200,   0.000,   0.000,     0.00,     0.00,     0.00, 0,      0, 1.10000, 0.90000, 1.10000, 0.90000, 999, 0, 0.00000, 0.00000,  0.000
1.00000,   0.000
     8,     7,     0,'1 ',1,1,1, 0.00000E+0, 0.00000E+0,2,'            ',1,   1,1.0000,   0,1.0000,   0,1.0000,   0,1.0000,'            '
 0.00000E+0, 1.76150E-1,   100.00
1.00000,   0.000,   0.000,     0.00,     0.00,     0.00, 0,      0, 1.10000, 0.90000, 1.10000, 0.90000, 999, 0, 0.00000, 0.00000,  0.000
1.00000,   0.000
 0 /End of Transformer data, Begin Area interchange data
   1,     1,     0.000,   999.990,'14BUS       '
 0 /End of Area interchange data, Begin Two-terminal dc line data
 0 /End of Two-terminal dc line data, Begin VSC dc line data
 0 /End of VSC dc line data, Begin Impedance correction table data
 0 /End of Impedance correction table data, Begin Multi-terminal dc line data
 0 /End of Multi-terminal dc line data, Begin Multi-section line data
 0 /End of Multi-section line data, Begin Zone data
   1,'14-BUS      '
 0 /End of Zone data, Begin Inter-area transfer data
 0 /End of Inter-area transfer data, Begin Owner data
 0 /End of Owner data, Begin FACTS device data
 0 /End of FACTS device data, Begin Switched shunt data
 0 /End of Switched shunt data, Begin GNE device data
 0 /End of GNE device data, Begin Induction machine data
 0 /End of Induction machine data
Q
